<?xml version="1.0" encoding="UTF-8"?>

<!-- generated on 12/09/20 19:39:31 by Eclipse SUMO duarouter Version 1.8.0
<configuration xmlns:xsi="http://www.w3.org/2001/XMLSchema-instance" xsi:noNamespaceSchemaLocation="http://sumo.dlr.de/xsd/duarouterConfiguration.xsd">

    <input>
        <net-file value="downtown.net.xml"/>
        <route-files value="dowtown.trips.xml"/>
    </input>

    <output>
        <output-file value="downtown.rou.xml"/>
        <alternatives-output value="downtown.rou.alt.xml"/>
    </output>

    <report>
        <ignore-errors value="true"/>
    </report>

</configuration>
-->

<routes xmlns:xsi="http://www.w3.org/2001/XMLSchema-instance" xsi:noNamespaceSchemaLocation="http://sumo.dlr.de/xsd/routes_file.xsd">
    <vehicle id="0" depart="0.00">
        <route edges="246544355#2 246544355#3 -726193649 248594929#2 248594929#3 272425930#3 164977469#5 164977469#6 164977469#7 164977469#8 164977469#9 164977469#10 164977469#11 135691636#1 135691636#2 135691636#3 135691636#4 135691636#5 247017508#0 247017508#1 247017508#2 247017508#3 247017508#4 247017508#5 247017508#6 595194073#0 595194073#1 595194429#0 119105013#0 119105013#1 119105013#2 -119105013#2"/>
    </vehicle>
    <vehicle id="1" depart="1.00">
        <route edges="-421239256 119961386#2 421239271#0 421239271#1 421239271#2 579894118#8 579894118#9 579894118#10 579894118#11 272425876#0 272425876#1 272425876#2 272425876#3 272425876#4 272425876#5 272425876#6 272425876#7 272425876#8 272425876#9 272425876#10 -579871459#1 595197577#0 595197577#1 -289430671"/>
    </vehicle>
    <vehicle id="2" depart="2.00">
        <route edges="289430709 -289430696#1 289430657#7 -289430722#3 -289430722#2 -289430722#1 -289430722#0 -466178110#0 289430692#1 -725857296 -594718825#2 -594718825#1 -725857295 -725076985#0 592184162 255973075#0 255973075#1 -255973044 255973044"/>
    </vehicle>
    <vehicle id="3" depart="3.00">
        <route edges="594754419#0 594754419#1 594754419#2 594754419#3 579885654 -579885651 -289430662#12 -289430662#11 466178130 -466708093#19 -466708093#18 -466708093#17 -466708093#16 -466708093#15 -466708093#14 -466708093#13 -466708093#12 -466708093#11 -466708093#10 -466708093#9 -466708093#8 -466708093#7 -119105031#5 -119105031#4 -119105031#3 -119105031#2 -119105031#1 -323358735#0 -119402637#4 -119402637#3"/>
    </vehicle>
    <vehicle id="4" depart="4.00">
        <route edges="-742341130#0 594716277#2 -742341124#0 594716276#16 594716276#17 731159964 -119105036#7 -119105036#6 -119105036#5 -119105036#4 -119105036#3 -119105036#2 -119105036#1 -119105036#0 119105009#12 466708091#0 466708091#1 466708080 466708075#1 731105263#0 731105263#1 731105263#2 731105263#3 -119105030#1 -119105030#0"/>
    </vehicle>
    <vehicle id="5" depart="5.00">
        <route edges="-289430650 -289430690#0 289430699#3 -421239250 -119104988#7 -119104988#6 -119104988#5 -119104988#4 -119104988#3 -119104988#2 -119104988#1 -119104988#0 -466708093#9 -466708093#8 -466708093#7 -466708093#6 -466708093#5 -466708093#4 -466708093#3 -466708093#2 -466708093#1 -466708093#0 482918251#0 482918251#1 594703234#0 594703234#1 594703234#2 466708075#0 466708075#1 731105263#0 731105263#1 731105263#2 731105263#3 579879912#0 579879912#1 579879912#2 579879912#3 579879912#4 -407392687#5 -407392687#4 -407392687#3 -407392687#2 -407392687#1 -407392687#0 594697061 594697068#1 594703235#0 594703235#1 594703237#0 733422063#0 733422063#1 733422063#2 119105020#0 -119104972#6 -119105073#13 -119105073#12 -119105073#11 -119105073#10 -119105073#9 -119105073#8 -119105073#7 -119105073#6 -119105073#5 -119105073#4 119105073#4"/>
    </vehicle>
    <vehicle id="6" depart="6.00">
        <route edges="-119105021#1 -119105021#0 466708091#1 466708091#2 594703234#2 466708081 594703233 294172109#0 294172108#1 294172108#2 594716280#0 594716280#1 594716280#2 594716280#3 594716280#4 594716280#5 594716280#6 594716280#7 119961385#1 119961385#2 119961385#3 119961385#4 -205456007#0 176914792#3 176914792#4 176914792#5 119104988#9 119104988#10 119104988#11 119104988#12 119104988#13 119104988#14 119104988#15 119104988#16 119104988#17 119104988#18 119104988#19 119104988#20 119104988#21 -272425893#5 -272425893#4 -272425893#3 -272425893#2 -272425893#1"/>
    </vehicle>
    <vehicle id="7" depart="7.00">
        <route edges="247017493 579871451#5 247017492#2 247017492#3 164977469#11 164977469#12 164977469#13 248594933#1 248594933#2 248594933#3 248594933#4 733423737 142015369#0 142015369#1 142015369#2 142015369#3 142015369#4 142015369#5 584018765#1 584018765#2 584018765#3 584018765#4 584018765#5 584018765#6 584018765#7 584018765#8 584018765#9 584018765#10 584018765#11 584018765#12 584018765#13 584018765#14 584018765#15 584018765#16 584018765#17 179394286#0 179394286#1 179394286#2 179394286#3 179394286#4 -205456014 119302924#4 -119302915#4 119302927#5"/>
    </vehicle>
    <vehicle id="8" depart="8.00">
        <route edges="-289430657#7 289430657#7 289430657#8 289430657#9 289430657#10 289430657#11 -579894119#2 -579894119#1 -579894119#0 -179394286#9 -179394286#8 -179394286#7 -179394286#6 -179394286#5 -179394286#4 -179394286#3 -179394286#2 -179394286#1 -179394286#0 -119105064#22 -119105064#21 -119105064#20 -119105064#19 -119105064#18 -119105064#17 -119105064#16 -119105064#15 -119105064#14 -119105064#13 -119105064#12 -119105064#11 -119105064#10 -119105064#9 -119105064#8 -119105064#7 -119105064#6 -119105064#5 -119105064#4 -119105064#3 -119105064#2 -119105064#1 -119105064#0 -725822450#5 -725822450#4 -725822450#3 -725822450#2 -725822450#1 119104985#9 119104985#10 119104985#11 119104985#12 119104985#13 119104985#14 119104985#15 407392690 407392692#0 407392692#1 407392692#2 407392692#3 594703237#0 733422063#0 733422063#1 733422063#2 119105020#0 119105020#1 119105020#2 119105020#3 119105020#4 119105020#5 595158668 272425945#0 272425945#1 272425945#2 272425945#3 176914783#0 176914783#1 176914783#2 176914783#3 176914783#4 176914783#5 176914783#6 176914783#7 176914783#8"/>
    </vehicle>
    <vehicle id="9" depart="9.00">
        <route edges="466178164#5 466178164#6 -715351867#2 -715351867#1 466178182#4 466178182#5 466178182#6 726164214#1 726175663 466178102#0 466178102#1 466178102#2 726164210 726164213 30145497#5 735383198 723762040#5 723762040#6 723762040#7 723762040#8 723762040#9 723762040#10 723762040#11 204017792#0 204017792#1 204017792#2 204017792#3 204017792#4 204017792#5 204017792#6 176914696#0 176914696#1 176914696#2 176914696#3 176914696#4 176914696#5 176914696#6 176914696#7 594703237#2 594703236#0 594703236#1 594703231 594697065#0 594697065#1 407392687#0 407392687#1 407392687#2 407392687#3 407392687#4 407392687#5 -119104982#9 -119104982#8"/>
    </vehicle>
    <vehicle id="10" depart="10.00">
        <route edges="466178145 466178188#10 726164210 726164213 30145497#5 735383198 723762040#5 723762040#6 723762040#7 723762040#8 723762040#9 723762040#10 723762040#11 204017792#0 204017792#1 204017792#2 204017792#3 204017792#4 204017792#5 204017792#6 176914696#0 176914696#1 176914696#2 176914696#3 176914696#4 176914696#5 176914696#6 176914696#7 594703237#2 407392689#0 407392689#1 407392689#2 142015359#1 142015359#2 142015359#3 142015359#4 276743392 -119508599#10 579890071#0 579890071#1 579890071#2 -272425925#8 -272425925#7 -272425925#6 -272425925#5 -272425925#4 -272425925#3 -272425925#2 272425925#2"/>
    </vehicle>
    <vehicle id="11" depart="11.00">
        <route edges="-594697072#2 -466178096#1 -466178096#0 -466178163#0 -119295620#20 -119295620#19 -119295620#18 -119295620#17 -119295620#16 -119295620#15 -119295620#14 -119295620#13 -119295620#12 -119295620#11 -119295620#10 119295618#3 119295618#4 119295618#5 119295618#6 412462121#0 412462121#1 412462121#2 412462121#3 412462121#4 412462121#5 412462121#6 412462121#7 412462121#8 412462121#9 412462121#10 412462121#11 412462121#12 412462121#13 412462121#14 412462121#15 412462121#16 584018767#0 584018767#1 584018767#2 584018767#3 584018767#4 584018767#5 247035112#2 247035112#3 247035112#4 272425876#8 272425876#9 164977469#1 164977469#2 164977469#3 369464633#0 369464633#1 369464633#2 -726160467#1 -247016535#1"/>
    </vehicle>
    <vehicle id="12" depart="12.00">
        <route edges="733422063#1 733422063#2 119105020#0 119104972#7 176914696#5 176914696#6 176914696#7 594703237#2 594703236#0 594703236#1 594703231 594697068#0 594697068#1 407392688#0 407392688#1 38499490#1 38499490#2 38499490#3 38499490#4 38499490#5 725822450#0 725822450#1 725822450#2 725822450#3 725822450#4 725822450#5 119105064#0 119105064#1 119105064#2 119105064#3 119105064#4 119105064#5 119105064#6 119105064#7 119105064#8 119105064#9 119105064#10 119105064#11 119105064#12 119105064#13 119105064#14 119105064#15 119105064#16 119105064#17 119105064#18 119105064#19 119105064#20 119105064#21 119105064#22 179394286#0 179394286#1 179394286#2 179394286#3 179394286#4 179394286#5 179394286#6 179394286#7 179394286#8 179394286#9 412462122#0 289430646#0 289430646#1 289430646#2 -289430692#1 466178110#0 466178110#1 466178110#2 466178110#3 289430736#0 -592184165#1"/>
    </vehicle>
    <vehicle id="13" depart="13.00">
        <route edges="-119961379#0 -119961409#1 584018765#10 584018765#11 584018765#12 584018765#13 584018765#14 584018765#15 584018765#16 584018765#17 412462120#0 412462120#1 412462120#2 412462120#3 412462120#4 412462120#5 412462120#6 594685681#2 594685680 594354893#0 119302926#0 119302926#1 119302926#2 119302926#3 119302926#4 119302926#5 119302926#6 466708077#0 466708077#1 -466708093#12 -466708093#11 -466708093#10 119104988#0 119104988#1 -294172108#9 -119961399#1 -119961399#0"/>
    </vehicle>
    <vehicle id="14" depart="14.00">
        <route edges="579885647#12 -289430729#0 -289430662#0 119302919#3 -466708093#13 -466708093#12 -466708093#11 -466708093#10 -466708093#9 -466708093#8 -466708093#7 -466708093#6 -466708093#5 -466708093#4 -466708093#3 -466708093#2 -466708093#1 -466708093#0 482918251#0 294172108#0 294172108#1 294172108#2 594716280#0 594716280#1 594716280#2 -205445836#2 -205445836#1 205445836#1"/>
    </vehicle>
    <vehicle id="15" depart="15.00">
        <route edges="466178154 -466178154 -466708093#20 -466708093#19 -466708093#18 -466708093#17 -466708093#16 -466708093#15 -466708093#14 -466708093#13 466708077#2 466708077#3 466708077#4 466708077#5 119105053#7 594764913#0 289430699#0"/>
    </vehicle>
    <vehicle id="16" depart="16.00">
        <route edges="119295640#7 -119295610#2 -119295610#1 -119295610#0 119105064#18 119105064#19 119105064#20 119105064#21 119105064#22 412462120#0 412462120#1 412462120#2 412462120#3 412462120#4 412462120#5 412462120#6 594685681#2 594685680 594354893#0 119302926#0 119302926#1 119302926#2 119302926#3 742341119#0 742341119#1 742341119#2 742341119#3 742341119#4 742341119#5 742341141#0"/>
    </vehicle>
    <vehicle id="17" depart="17.00">
        <route edges="-597085697#0 595204098 -176914787#1 -176914787#0 119105034#0 119105034#1 119105034#2 119105034#3 176914696#0 176914696#1 176914696#2 176914696#3 176914696#4 176914696#5 176914696#6 176914696#7 594703237#2 407392689#0 407392689#1 407392689#2 142015359#1 142015359#2 142015359#3 142015359#4 276743392 -119508599#10 -119508599#9 -119508599#8 119508599#8"/>
    </vehicle>
    <vehicle id="18" depart="18.00">
        <route edges="475868147#5 475868147#6 475868147#7 475868147#8 475868147#9 475868147#10 475868147#11 475868147#12 475868147#13 475868147#14 475868147#15 723762040#1 723762040#2 723762040#3 723762040#4 723762040#5 723762040#6 723762040#7 723762040#8 723762040#9 723762040#10 723762040#11 204017792#0 204017792#1 204017792#2 204017792#3 204017792#4 204017792#5 204017792#6 176914696#0 176914696#1 176914696#2 176914696#3 176914696#4 176914696#5 176914696#6 176914696#7 594703237#2 594703236#0 594703236#1 594703231 594697068#0 594697068#1 407392688#0 407392688#1 38499490#1 38499490#2 38499490#3 38499490#4 38499490#5 725822450#0 725822450#1 725822450#2 725822450#3 725822450#4 725822450#5 119105064#0 119105064#1 119105064#2 119105064#3 119105064#4 119105064#5 119105064#6 119105064#7 119105064#8 119105064#9 119105064#10 119105064#11 119105064#12 119105064#13 119105064#14 119105064#15 119105064#16 119105064#17 119105064#18 119105064#19 119105064#20 119105064#21 119105064#22 179394286#0 412462121#0 412462121#1 119402630#1 119402630#2 119402630#3 119402630#4 119402630#5 205456022#0 205456022#1"/>
    </vehicle>
    <vehicle id="19" depart="19.00">
        <route edges="594697068#0 594697068#1 407392688#0 407392688#1 38499490#1 38499490#2 38499490#3 38499490#4 38499490#5 38499490#6 38499490#7 38499490#8 38499490#9 38499490#10 122193221#0 122193221#1 122193221#2"/>
    </vehicle>
    <vehicle id="20" depart="20.00">
        <route edges="272425960#6 -272425960#6 -272425960#5 -272425960#4 -272425960#3 -272425960#2 323358739#2 323358739#3 323358739#4 -594716280#9 -594716280#8 -594716280#7 -594716280#6 -594716280#5 -594716280#4 -594716280#3 -594716280#2 -594716280#1 -594716280#0 -294172108#2 -294172108#1 -294172108#0 482918251#1 594703234#0 594771647#0 594771647#1 -119105009#12 -119105009#11 -119105009#10 -119105009#9 -119105009#8 -119105009#7 -119105009#6 -119105009#5 -119105009#4 -119105009#3 -119105009#2 -119105009#1 38499490#7 38499490#8 38499490#9 323358691#8 119104985#4 119104985#5 -119105069#7 -119105069#6 -119105069#5"/>
    </vehicle>
    <vehicle id="21" depart="21.00">
        <route edges="-289430678#10 -289430678#9 -289430678#8 -289430678#7 -289430678#6 -289430678#5 -289430678#4 -289430678#3 -289430678#2 -289430678#1 -289430674#1 -289430674#0 -579894119#3 -579894119#2 -579894119#1 -579894119#0 -179394286#9 -179394286#8 -179394286#7 -179394286#6 -179394286#5 -179394286#4 -179394286#3 -179394286#2 -179394286#1 -179394286#0 412462120#0 412462120#1 412462120#2 412462120#3 412462120#4 412462120#5 412462120#6 594685681#2 594685680 594354893#0 594354893#1 594354893#2 594354894#0 466178125#0 466178125#1 -466178127#3"/>
    </vehicle>
    <vehicle id="22" depart="22.00">
        <route edges="-119302923#2 119302923#2 119302923#3 176914696#6 176914696#7 594703237#2 594703236#0 594703236#1 594703231 594697065#0 594697065#1 407392687#0 407392687#1 407392687#2 407392687#3 407392687#4 407392687#5 119104982#10 119104982#11 731105260#3 731105260#1 119105030#0 119105030#1 -731105263#3 -731105263#2 -731105263#1 -731105263#0 592190971 594703233 294172109#0 294172109#1 466708093#0 466708093#1 466708093#2 466708093#3 466708093#4 466708093#5 466708093#6 466708093#7 466708093#8 466708093#9 119104988#0 119104988#1 119104988#2 119104988#3 119104988#4 119104988#5 119104988#6 119104988#7 421239250 -289430699#3"/>
    </vehicle>
    <vehicle id="23" depart="23.00">
        <route edges="-120394650#0 120394650#0 120394650#1 -120394648#2 -120394648#1 -120394648#0 247035094#0 -247035097 247035091#1 247035091#2 595204090 245046142#8 245046142#9 245046142#1 245046142#2 245046142#3 245046142#4 164977469#0 164977469#1 164977469#2 164977469#3 164977469#4 164977469#5 164977469#6 164977469#7 119508604#0 119508604#1 119508604#2 119508604#3 119508604#4 119508604#5 -247016547#6 -247016547#5 425494721#0 425494721#1 -425494721#1"/>
    </vehicle>
    <vehicle id="24" depart="24.00">
        <route edges="245047301 245047241#3 245047241#4 579871459#0 579871459#1 -272425876#10 -272425876#9 248594929#7 864024706 119295605#1 119295605#2 119295605#3 119295605#4 119295605#5 119295605#6 119295605#7 584018765#0 584018765#1 584018765#2 584018765#3 584018765#4 584018765#5 584018765#6 584018765#7 584018765#8 584018765#9 584018765#10 584018765#11 584018765#12 584018765#13 584018765#14 584018765#15 584018765#16 584018765#17 412462120#0 412462120#1 412462120#2 412462120#3 412462120#4 412462120#5 412462120#6 594685681#2 594685680 594354893#0 119302926#0 119302926#1 119302926#2 119302926#3 119302926#4 119302926#5 119302926#6 466178116#0 466178116#1 -595164165#0"/>
    </vehicle>
    <vehicle id="25" depart="25.00">
        <route edges="-595168806 119302923#0 119302923#1 119302923#2 119302923#3 176914696#6 176914696#7 594703237#2 594703236#0 594703236#1 594703231 594697065#0 594697065#1 407392687#0 407392687#1 407392687#2 407392687#3 407392687#4 407392687#5 119104982#10 119104982#11 731105260#3 731105260#1 119105030#0 119105030#1 -731105263#3 -731105263#2 -731105263#1 -731105263#0 592190971 594703233 294172109#0 294172109#1 466708093#0 466708093#1 466708093#2 466708093#3 466708093#4 466708093#5 466708093#6 466708093#7 466708093#8 466708093#9 466708093#10 466708093#11 466708093#12 466708077#2 466708077#3 466708077#4 289430659#2 289430659#3 289430729#5 289430729#6 -289430618#3"/>
    </vehicle>
    <vehicle id="26" depart="26.00">
        <route edges="-323358742#3 119295610#2 -119295640#7 -119295640#6 -119295640#5 -119295640#4 -119295640#3 -119295640#2 -119295640#1 -119295640#0 -594737795#0 323358745#12 -289430673#4 -289430673#3 -289430673#2 -289430673#1 -289430673#0 725822449#2 725822449#3 -725822450#12 -725822450#11 -725822450#10 -725822450#9 -725822450#8 -725822450#7 -725822450#6 -725822450#5 -725822450#4 -725822450#3 -725822450#2 -725822450#1 119104985#9 119104985#10 119104985#11 119104985#12 119104985#13 119104985#14 119104985#15 407392690 407392692#0 407392692#1 407392692#2 407392692#3 594703237#0 733422063#0 733422063#1 733422063#2 119105020#0 119105020#1 119105020#2 119105020#3 119105020#4 119105020#5 119105065#0 119105065#1 119105065#2 119105065#3 119105065#4 119105065#5 30145497#0 30145497#1 30145497#2 30145497#3 597090716#0 597090716#1 -597090717#1 -597090717#0 597083262#2 597083262#3 597083262#4 597083262#5 597083262#6 247021183#1 247021183#2 247021183#3 726112052#0"/>
    </vehicle>
    <vehicle id="27" depart="27.00">
        <route edges="247016550#0 247016550#1 247016550#2 247016550#3 247016550#4 595194075#1 247015831#6 247015831#7 247015831#8 247015831#9 247015831#10 726174490#0 248594929#3 248594929#4 248594929#5 248594929#6 248594929#7 864024706 119295605#1 119295605#2 119295605#3 119295605#4 119295605#5 119295605#6 119295605#7 584018765#0 584018765#1 584018765#2 584018765#3 584018765#4 205445849#1 205445849#2 205445849#3 205445849#4"/>
    </vehicle>
    <vehicle id="28" depart="28.00">
        <route edges="-247021189#3 247021189#3 247021189#4 247021189#5 -726101675#0 726162300#0 726162300#1 726162300#2 726162300#3 726162300#4 204017792#1 204017792#2 204017792#3 204017792#4 204017792#5 204017792#6 176914696#0 176914696#1 176914696#2 176914696#3 176914696#4 176914696#5 176914696#6 176914696#7 594703237#2 594703236#0 594703236#1 594703231 594697068#0 594697068#1 407392688#0 407392688#1 38499490#1 38499490#2 38499490#3 38499490#4 38499490#5 725822450#0 725822450#1 725822450#2 725822450#3 725822450#4 725822450#5 119105064#0 119105064#1 119105064#2 119105064#3 119105064#4 119105064#5 119105064#6 119105064#7 119105064#8 119105064#9 119105064#10 119105064#11 119105064#12 119105064#13 119105064#14 119105064#15 119105064#16 119105064#17 119105064#18 119105064#19 119105064#20 119105064#21 119105064#22 179394286#0 179394286#1 179394286#2 179394286#3 179394286#4 179394286#5 179394286#6 179394286#7 179394286#8 179394286#9 412462123 579894119#1 579894119#2 -289430657#11 -289430657#10 -289430657#9 -289430657#8 -289430657#7 289430696#1"/>
    </vehicle>
    <vehicle id="29" depart="29.00">
        <route edges="-247017496#0 -247016547#2 -247016547#1 -247016547#0 247017508#0 247017508#1 247017508#2 247017508#3 247017508#4 247017508#5 247017508#6 595194073#0 595194073#1 595194429#0 119105013#0 119105013#1 119105013#2 119105013#3 119105065#4 119105065#5 30145497#0 30145497#1 30145497#2 30145497#3 30145497#4 30145497#5 30145497#6 30145497#7 30145497#8 -475868147#14 -475868147#13 -475868147#12 -475868147#11 -475868147#10 -247035124#1 247035123#3 -597430602#0"/>
    </vehicle>
    <vehicle id="30" depart="30.00">
        <route edges="742341228#10 -742341228#10 -742341228#9 -742341228#8 -742341228#7 -742341228#6 466708084#1 466708084#2 466708084#3 466708084#4 466708084#5 466708084#6 594354893#2 594685679 594685681#0 119295618#0 119295618#1 119295618#2 119295618#3 119295618#4 119295618#5 119295618#6 412462121#0 412462121#1 412462121#2 412462121#3 412462121#4 412462121#5 412462121#6 412462121#7 412462121#8 412462121#9 412462121#10 412462121#11 412462121#12 412462121#13 412462121#14 412462121#15 412462121#16 584018767#0 584018767#1 584018767#2 -272425912#5 -272425912#4 -272425967#1 247016531#4"/>
    </vehicle>
    <vehicle id="31" depart="31.00">
        <route edges="119508600#2 -119508600#2 -119508600#1 -119508600#0 579871451#3 579871451#4 579871451#5 247017492#2 247017492#3 164977469#11 164977469#12 164977469#13 248594933#1 248594933#2 142015358#0 142015358#1 142015358#2 142015358#3 142015358#4 142015358#5 142015358#6 142015358#7 407392692#0 407392692#1 407392692#2 407392692#3 594703237#0 594703237#1 594703237#2 407392689#0 407392689#1 407392689#2 142015359#1 142015359#2 142015359#3 142015359#4 276743392 -119508599#10 579890071#0 579890071#1 579890071#2 579890071#3 579890071#4 579890071#5 579890071#6 579890071#7 272425777"/>
    </vehicle>
    <vehicle id="32" depart="32.00">
        <route edges="579874881#1 421239269#2 421239269#3 119104972#4 119104972#5 119104972#6 119104972#7 176914696#5 176914696#6 176914696#7 594703237#2 594703236#0 594703236#1 594703231 594697068#0 594697068#1 407392688#0 407392688#1 407392688#2 407392690 407392692#0"/>
    </vehicle>
    <vehicle id="33" depart="33.00">
        <route edges="-289430683#0 594754413#1 594754413#2 -289430659#4 -289430659#3 119302919#1 119302919#2 119302919#3 -466708093#13 -466708093#12 -466708093#11 -466708093#10 -466708093#9 -466708093#8 -466708093#7 -466708093#6 -466708093#5 -466708093#4 -466708093#3 -466708093#2 -466708093#1 -466708093#0 482918251#0 482918251#1 594703234#0 594703234#1 594703234#2 466708075#0 466708075#1 731105263#0 731105263#1 731105263#2 731105263#3 579879912#0 579879912#1 579879912#2 579879912#3 579879912#4 -407392687#5 -407392687#4 -407392687#3 -407392687#2 -407392687#1 -407392687#0 594697061 594697068#1 594703235#0 594703235#1 594703237#0 733422063#0 733422063#1 733422063#2 -119105050#1 -119105050#0 119105002#5 119105002#1 119105002#2 -119105035#11"/>
    </vehicle>
    <vehicle id="34" depart="34.00">
        <route edges="-475868147#11 475868147#11 475868147#12 475868147#13 475868147#14 475868147#15 723762040#1 723762040#2 723762040#3 723762040#4 723762040#5 723762040#6 723762040#7 723762040#8 723762040#9 723762040#10 723762040#11 204017792#0 204017792#1 204017792#2 204017792#3 204017792#4 204017792#5 204017792#6 176914696#0 176914696#1 176914696#2 176914696#3 176914696#4 176914696#5 176914696#6 176914696#7 594703237#2 594703236#0 594703236#1 594703231 594697068#0 594697068#1 407392688#0 407392688#1 38499490#1 38499490#2 38499490#3 38499490#4 38499490#5 725822450#0 725822450#1 725822450#2 725822450#3 725822450#4 725822450#5 119105064#0 119105064#1 119105064#2 119105064#3 119105064#4 119105064#5 119105064#6 119105064#7 119105064#8 119105064#9 -323358745#7 -323358745#6"/>
    </vehicle>
    <vehicle id="35" depart="35.00">
        <route edges="-289430615#1 -289430615#0 466708093#17 466708093#18 726158705"/>
    </vehicle>
    <vehicle id="36" depart="36.00">
        <route edges="594717460#0 -594717460#0 -119402630#6 -119402630#5 -119402630#4 -119402630#3 -119402630#2 -119402630#1 -119402630#0 584018765#15 584018765#16 584018765#17 412462120#0 412462120#1 412462120#2 412462120#3 412462120#4 412462120#5 412462120#6 594685681#2 119104985#0 119104985#1 119104985#2 119104985#3 -323358691#8 38499490#10 122193221#0 122193221#1 122193221#2 122193221#3 122193221#4 122193221#5 -323358703#0 -480821581#0"/>
    </vehicle>
    <vehicle id="37" depart="37.00">
        <route edges="247021183#2 247021183#3 247021183#4 247021183#5 726106341#0 726106341#1 247021184#0 579866327#5 579866326#0 579866326#1 597083259#0 597083259#1 -726101675#1 -726101675#0 726162300#0 726162300#1 726162300#2 726162300#3 726162300#4 204017792#1 204017792#2 204017792#3 204017792#4 204017792#5 204017792#6 176914696#0 176914696#1 176914696#2 176914696#3 176914696#4 176914696#5 176914696#6 176914696#7 594703237#2 594703236#0 594703236#1 594703231 594697065#0 594697065#1 407392687#0 407392687#1 407392687#2 407392687#3 407392687#4 407392687#5 119104982#10 119104982#11 731105260#3 731105260#1 119105030#0 119105030#1 -731105263#3 -731105263#2 -731105263#1 -731105263#0 592190971 594703233 294172109#0 294172109#1 466708093#0 466708093#1 466708093#2 466708093#3 466708093#4 466708093#5 466708093#6 466708093#7 466708093#8 466708093#9 466708093#10 466708093#11 466708093#12 466708093#13 466708093#14 466708093#15 466708093#16 466708093#17 466708093#18 726158705 -595164155#0 -595164153#1 -595164153#0 -726158703"/>
    </vehicle>
    <vehicle id="38" depart="38.00">
        <route edges="597101420#2 272425945#2 272425945#3 119105034#0 119105034#1 119105034#2 119105034#3 176914696#0 176914696#1 176914696#2 176914696#3 176914696#4 176914696#5 176914696#6 176914696#7 594703237#2 594703236#0 594703236#1 594703231 594697068#0 594697068#1 407392688#0 407392688#1 38499490#1 38499490#2 38499490#3 38499490#4 38499490#5 38499490#6 38499490#7 38499490#8 38499490#9 323358691#8 119104985#4 -119104991#3 -119104991#2 119104991#2"/>
    </vehicle>
    <vehicle id="39" depart="39.00">
        <route edges="-323358740#0 323358740#0 323358740#1 323358740#2 323358740#3 323358696 -119508599#0 -119104994#7 -119104994#6 -119104994#5 205456027#0 205456027#1 205456027#2 205456027#3 594768171#0 594768171#1 -294172108#1 -294172108#0"/>
    </vehicle>
    <vehicle id="40" depart="40.00">
        <route edges="119961382#0 119961382#1 119961382#2 119961382#3 -119295635#9 -119295635#8 -119295635#7 -119295635#6 -119295635#5 -119295635#4 -119295635#3 -119295635#2 -119295635#1 -119295635#0 -119105011#1 -119105011#0 725822449#3 -725822450#12 -725822450#11 -725822450#10 -725822450#9 -725822450#8 -725822450#7 -725822450#6 -725822450#5 -725822450#4 -725822450#3 -725822450#2 -725822450#1 119104985#9 119104982#0 119104982#1 119104982#2 119104982#3 119104982#4 119104982#5 119104982#6 119104982#7 119104982#8 119104982#9 119104982#10 119104982#11 731105260#3 731105260#1 119105030#0 119104994#0 119104994#1 119104994#2 119104994#3 119104994#4 119104994#5 119104994#6 119104994#7 119508599#0 -323358696 -323358740#3"/>
    </vehicle>
    <vehicle id="41" depart="41.00">
        <route edges="142015358#6 142015358#7 407392692#0 38499490#0 38499490#1 38499490#2 38499490#3 38499490#4 38499490#5 38499490#6 38499490#7 38499490#8 38499490#9 38499490#10 38499490#11 38499490#12 38499490#13 38499490#14 594354893#0 119302926#0 119302926#1 119302926#2 119302926#3 119302926#4 119302926#5 742341228#5 742341228#6 -466708083#4 -466708083#3 -466708083#2 742341148#3 595164158#3 595164155#0"/>
    </vehicle>
    <vehicle id="42" depart="42.00">
        <route edges="-726136126 726136126 346391579#2 346391579#3 245046142#4 164977469#0 -272425876#9 248594929#7 864024706 119295605#1 119295605#2 119295605#3 119295605#4 119295605#5 119295605#6 119295605#7 584018765#0 584018765#1 584018765#2 584018765#3 584018765#4 584018765#5 584018765#6 584018765#7 584018765#8 584018765#9 584018765#10 584018765#11 584018765#12 584018765#13 584018765#14 584018765#15 584018765#16 584018765#17 179394286#0 179394286#1 179394286#2 179394286#3 179394286#4 179394286#5 179394286#6 179394286#7 179394286#8 179394286#9 412462123 579894119#1 579894119#2 579894119#3 289430674#0 289430674#1 289430678#1 289430678#2 289430678#3 289430678#4 289430678#5 289430678#6 289430678#7 289430678#8 289430658#0 289430658#1 -289430658#1"/>
    </vehicle>
    <vehicle id="44" depart="44.00">
        <route edges="-119508607#2 -119508607#1 135691636#3 135691636#4 726178581 119105035#0 119105035#1 119105035#2 119105035#3 119104971#2 119105073#3 -119105073#3"/>
    </vehicle>
    <vehicle id="45" depart="45.00">
        <route edges="-122193217#2 122193204#0 122193204#1 -119105011#4 -119105011#3 -119105011#2 -119105011#1 -119105011#0 725822449#3 -725822450#12 -725822450#11 -725822450#10 -725822450#9 -725822450#8 -725822450#7 -725822450#6 -725822450#5 -725822450#4 -725822450#3 -725822450#2 -725822450#1 119104985#9 119104982#0 119104982#1 119104982#2 119104982#3 119104982#4 119104982#5 119104982#6 119104982#7 119104982#8 119104982#9 119104982#10 119104982#11 731105260#3 731105261#0 731105261#1 731105261#2 731105261#3 731105261#4 142015359#8 142015359#1 216486319#0 216486319#1 216486328#3 216486328#4 216486328#5 142015371 139402600#3 142015363 216486315#3 216486315#4 216486315#5 216486327"/>
    </vehicle>
    <vehicle id="46" depart="46.00">
        <route edges="466178095#2 480821585 -119961384#2 -119961381#1 -119961381#0 -255973075#6 412462121#7 412462121#8 412462121#9 -255973059#2 -255973059#1 -255973059#0 -742341155#2"/>
    </vehicle>
    <vehicle id="47" depart="47.00">
        <route edges="-119295623#1 -119295615#1 -119295628#6 -119295628#5 -119295628#4 -119295628#3 -119295628#2 -323358745#3 -323358745#2 -323358745#1 -323358745#0 119104985#4 119104985#5 119104985#6 119104985#7 119104985#8 119104985#9 119104985#10 119104985#11 119104985#12 119104985#13 119104985#14 119104985#15 407392690 407392692#0 407392692#1 407392692#2 407392692#3 594703237#0 733422063#0 733422063#1 733422063#2 119105020#0 119105020#1 119105020#2 119105020#3 119105020#4 119105020#5 119105065#0 119105065#1 119105065#2 119105065#3 119105065#4 119105065#5 30145497#0 30145497#1 30145497#2 30145497#3 30145497#4 -726164213 726164209 -726164212#1 -726164212#0 -726166659 -726164214#1 -726164214#0 -726166121#1 -715351866#4 -715351866#3"/>
    </vehicle>
    <vehicle id="48" depart="48.00">